result/opf_result.json
{
    "solve_time": 0.4570000171661377,
    "optimizer": "Ipopt",
    "termination_status": "LOCALLY_SOLVED",
    "dual_status": "FEASIBLE_POINT",
    "primal_status": "FEASIBLE_POINT",
    "objective": 4.380618705041744,
    "solution": {
        "voltage_source": {
            "source": {
                "qg_bus": [
                    1320.1004892032058,
                    1320.100489203075,
                    1320.1004892030012
                ],
                "qg": [
                    1320.1004892032058,
                    1320.100489203075,
                    1320.1004892030012
                ],
                "pg": [
                    1460.206235013924,
                    1460.20623501392,
                    1460.2062350139001
                ],
                "pg_bus": [
                    1460.206235013924,
                    1460.20623501392,
                    1460.2062350139001
                ]
            }
        },
        "line": {
            "l1_1_2": {
                "qf": [
                    841.4101739937039,
                    841.4101739936151,
                    841.4101739935703
                ],
                "qt": [
                    -838.0013187893063,
                    -838.0013187892322,
                    -838.0013187892104
                ],
                "pt": [
                    -1333.8465016065043,
                    -1333.8465016065372,
                    -1333.8465016064392
                ],
                "pf": [
                    1340.5336582154036,
                    1340.5336582154073,
                    1340.5336582153964
                ]
            },
            "l30_30_31": {
                "qf": [
                    71.06627915570473,
                    71.06627915567967,
                    71.06627915568781
                ],
                "qt": [
                    -70.15560635726493,
                    -70.15560635724468,
                    -70.15560635724526
                ],
                "pt": [
                    -140.1308954789365,
                    -140.1308954789732,
                    -140.13089547897272
                ],
                "pf": [
                    141.0523344664111,
                    141.0523344664622,
                    141.05233446645806
                ]
            },
            "l20_20_21": {
                "qf": [
                    26.757962859230528,
                    26.757962859227376,
                    26.75796285922743
                ],
                "qt": [
                    -26.696702552672775,
                    -26.696702552675454,
                    -26.696702552681018
                ],
                "pt": [
                    -60.02271248605033,
                    -60.022712486053386,
                    -60.02271248605335
                ],
                "pf": [
                    60.07514785266988,
                    60.07514785266732,
                    60.07514785267286
                ]
            },
            "l11_11_12": {
                "qf": [
                    82.10278252675792,
                    82.10278252673945,
                    82.10278252674716
                ],
                "qt": [
                    -81.95100202729535,
                    -81.95100202728229,
                    -81.95100202728625
                ],
                "pt": [
                    -162.2461467259659,
                    -162.24614672587828,
                    -162.246146725837
                ],
                "pf": [
                    162.7051548596953,
                    162.7051548596035,
                    162.70515485956196
                ]
            },
            "l18_2_19": {
                "qf": [
                    53.89453500571444,
                    53.894535005731484,
                    53.894535005712335
                ],
                "qt": [
                    -53.814726474165134,
                    -53.814726474160246,
                    -53.814726474163294
                ],
                "pt": [
                    -120.50806674155487,
                    -120.5080667415521,
                    -120.50806674155784
                ],
                "pf": [
                    120.59169794945055,
                    120.59169794946985,
                    120.59169794947559
                ]
            },
            "l32_32_33": {
                "qf": [
                    13.345182596803312,
                    13.345182596802529,
                    13.345182596803259
                ],
                "qt": [
                    -13.333333207468964,
                    -13.333333207468971,
                    -13.333333207468971
                ],
                "pt": [
                    -19.999990169483404,
                    -19.999990169488786,
                    -19.999990169488346
                ],
                "pf": [
                    20.007591919330213,
                    20.007591919350297,
                    20.00759191934669
                ]
            },
            "l2_2_3": {
                "qf": [
                    764.10678382589,
                    764.106783825799,
                    764.1067838257964
                ],
                "qt": [
                    -749.6035419500714,
                    -749.6035419499871,
                    -749.6035419499901
                ],
                "pt": [
                    -1151.4463709708818,
                    -1151.446370970877,
                    -1151.4463709707954
                ],
                "pf": [
                    1179.9214713720924,
                    1179.9214713721058,
                    1179.921471372002
                ]
            },
            "l10_10_11": {
                "qf": [
                    92.19890433935296,
                    92.19890433933114,
                    92.19890433933477
                ],
                "qt": [
                    -92.10278242817184,
                    -92.10278242815338,
                    -92.10278242816108
                ],
                "pt": [
                    -177.7051492065845,
                    -177.70514920649367,
                    -177.705149206452
                ],
                "pf": [
                    177.99587064128735,
                    177.99587064117244,
                    177.99587064114053
                ]
            },
            "l7_7_8": {
                "qf": [
                    142.65218521976442,
                    142.65218521973338,
                    142.65218521973122
                ],
                "qt": [
                    -141.79396813051977,
                    -141.79396813049206,
                    -141.79396813048967
                ],
                "pt": [
                    -288.7637560625965,
                    -288.7637560624781,
                    -288.7637560624483
                ],
                "pf": [
                    291.36066999483404,
                    291.3606699947043,
                    291.3606699946746
                ]
            },
            "l22_3_23": {
                "qf": [
                    153.8690123803013,
                    153.86901238029955,
                    153.8690123802999
                ],
                "qt": [
                    -152.70888700569625,
                    -152.70888700569634,
                    -152.70888700569648
                ],
                "pt": [
                    -313.43676261021494,
                    -313.4367626102209,
                    -313.4367626102099
                ],
                "pf": [
                    315.13461475804803,
                    315.13461475805155,
                    315.1346147580352
                ]
            },
            "l16_16_17": {
                "qf": [
                    20.14735620552598,
                    20.14735620551729,
                    20.14735620551618
                ],
                "qt": [
                    -20.012993724838317,
                    -20.01299372483612,
                    -20.012993724834907
                ],
                "pt": [
                    -40.114214146944384,
                    -40.11421414431008,
                    -40.114214144284084
                ],
                "pf": [
                    40.21462290689294,
                    40.21462290664739,
                    40.214622906622346
                ]
            },
            "l26_26_27": {
                "qf": [
                    321.1705357049745,
                    321.1705357049547,
                    321.1705357049635
                ],
                "qt": [
                    -320.1975926362493,
                    -320.1975926362323,
                    -320.1975926362393
                ],
                "pt": [
                    -300.96716521836504,
                    -300.96716521841137,
                    -300.96716521840966
                ],
                "pf": [
                    302.8780825106926,
                    302.87808251074927,
                    302.8780825107618
                ]
            },
            "l14_14_15": {
                "qf": [
                    30.387622020049246,
                    30.387622020038247,
                    30.3876220200437
                ],
                "qt": [
                    -30.238732925300262,
                    -30.238732925292233,
                    -30.238732925291636
                ],
                "pt": [
                    -80.33962562831321,
                    -80.33962562817729,
                    -80.33962562814743
                ],
                "pf": [
                    80.50687295845096,
                    80.50687295833588,
                    80.50687295830573
                ]
            },
            "l29_29_30": {
                "qf": [
                    272.2091072381004,
                    272.20910723807293,
                    272.2091072380822
                ],
                "qt": [
                    -271.0662790346871,
                    -271.066279034662,
                    -271.0662790346702
                ],
                "pt": [
                    -207.71899516762673,
                    -207.71899516767974,
                    -207.7189951676754
                ],
                "pf": [
                    209.96264167358115,
                    209.96264167362634,
                    209.96264167361778
                ]
            },
            "l15_15_16": {
                "qf": [
                    26.90539969943399,
                    26.90539969942595,
                    26.905399699425352
                ],
                "qt": [
                    -26.81402276371544,
                    -26.81402276370676,
                    -26.814022763705648
                ],
                "pt": [
                    -60.214584183923805,
                    -60.214584183721406,
                    -60.21458418369543
                ],
                "pf": [
                    60.339649552238924,
                    60.33964955208884,
                    60.33964955205949
                ]
            },
            "l8_8_9": {
                "qf": [
                    108.46063488557019,
                    108.46063488554248,
                    108.46063488554009
                ],
                "qt": [
                    -106.86602748751046,
                    -106.8660274874816,
                    -106.86602748748558
                ],
                "pt": [
                    -219.87757789162185,
                    -219.87757789150263,
                    -219.8775778914754
                ],
                "pf": [
                    222.09709238830686,
                    222.09709238818803,
                    222.09709238815833
                ]
            },
            "l9_9_10": {
                "qf": [
                    100.19936091400915,
                    100.19936091398029,
                    100.19936091398428
                ],
                "qt": [
                    -98.86557090820077,
                    -98.86557090817895,
                    -98.8655709081826
                ],
                "pt": [
                    -197.99586532370773,
                    -197.99586532359368,
                    -197.99586532356167
                ],
                "pf": [
                    199.87758176336726,
                    199.87758176324752,
                    199.87758176322032
                ]
            },
            "l3_3_4": {
                "qf": [
                    582.4011962892953,
                    582.4011962892126,
                    582.4011962892154
                ],
                "qt": [
                    -576.758787777531,
                    -576.7587877774596,
                    -576.758787777471
                ],
                "pt": [
                    -795.232781857989,
                    -795.2327818579814,
                    -795.2327818579333
                ],
                "pf": [
                    806.3117574780518,
                    806.3117574780433,
                    806.3117574779781
                ]
            },
            "l31_31_32": {
                "qf": [
                    46.82227314868502,
                    46.822273148664756,
                    46.822273148665346
                ],
                "qt": [
                    -46.678515804552916,
                    -46.67851580455214,
                    -46.67851580455287
                ],
                "pt": [
                    -90.00758236143642,
                    -90.00758236146159,
                    -90.00758236145757
                ],
                "pf": [
                    90.13090412338656,
                    90.13090412341919,
                    90.13090412341904
                ]
            },
            "l6_6_7": {
                "qf": [
                    179.40161451341262,
                    179.40161451338219,
                    179.40161451338182
                ],
                "qt": [
                    -175.9855184685346,
                    -175.98551846850353,
                    -175.9855184685014
                ],
                "pt": [
                    -358.02733414620366,
                    -358.0273341460742,
                    -358.0273341460445
                ],
                "pf": [
                    359.0607701643872,
                    359.06077016425894,
                    359.06077016423006
                ]
            },
            "l24_24_25": {
                "qf": [
                    67.2059086510614,
                    67.20590865106375,
                    67.20590865106378
                ],
                "qt": [
                    -66.66666660621108,
                    -66.66666660621108,
                    -66.66666660621108
                ],
                "pt": [
                    -139.99999844648133,
                    -139.9999984464815,
                    -139.99999844648147
                ],
                "pf": [
                    140.68914244606248,
                    140.68914244606793,
                    140.68914244606236
                ]
            },
            "l13_13_14": {
                "qf": [
                    57.53874584971448,
                    57.538745849704924,
                    57.53874584970923
                ],
                "qt": [
                    -57.054288580171104,
                    -57.05428858016012,
                    -57.05428858016556
                ],
                "pt": [
                    -120.50685603480628,
                    -120.50685603469805,
                    -120.50685603466759
                ],
                "pf": [
                    120.87487632682473,
                    120.8748763267269,
                    120.87487632668977
                ]
            },
            "l28_28_29": {
                "qf": [
                    299.46914233590104,
                    299.4691423358763,
                    299.4691423358845
                ],
                "qt": [
                    -295.54244045690876,
                    -295.54244045688137,
                    -295.54244045689063
                ],
                "pt": [
                    -249.96263676481772,
                    -249.9626367648641,
                    -249.9626367648555
                ],
                "pf": [
                    254.4699845431408,
                    254.46998454318515,
                    254.46998454318012
                ]
            },
            "l27_27_28": {
                "qf": [
                    311.8642593914763,
                    311.8642593914593,
                    311.86425939146625
                ],
                "qt": [
                    -306.13580889952993,
                    -306.1358088995052,
                    -306.1358088995134
                ],
                "pt": [
                    -274.469980926984,
                    -274.46998092702904,
                    -274.4699809270239
                ],
                "pf": [
                    280.967167855512,
                    280.96716785555805,
                    280.96716785555634
                ]
            },
            "l21_21_22": {
                "qf": [
                    13.363369263773313,
                    13.363369263775988,
                    13.363369263781552
                ],
                "qt": [
                    -13.333333288635085,
                    -13.333333288635085,
                    -13.333333288635085
                ],
                "pt": [
                    -29.999998888717528,
                    -29.99999888871762,
                    -29.99999888871761
                ],
                "pf": [
                    30.02271359005969,
                    30.022713590062654,
                    30.022713590062633
                ]
            },
            "l4_4_5": {
                "qf": [
                    550.0921211702229,
                    550.0921211701514,
                    550.0921211701626
                ],
                "qt": [
                    -544.7771679893267,
                    -544.7771679892485,
                    -544.777167989263
                ],
                "pt": [
                    -744.7972958256046,
                    -744.7972958256063,
                    -744.7972958255424
                ],
                "pf": [
                    755.2327832794484,
                    755.2327832794407,
                    755.2327832793925
                ]
            },
            "l17_17_18": {
                "qf": [
                    13.34632716811514,
                    13.346327168112934,
                    13.346327168111717
                ],
                "qt": [
                    -13.333333222883246,
                    -13.33333322288326,
                    -13.33333322288326
                ],
                "pt": [
                    -25.06737097833678,
                    -25.049065512379947,
                    -25.04906555917
                ],
                "pf": [
                    20.114402061552227,
                    20.114402056573187,
                    20.114402056544773
                ]
            },
            "l12_12_13": {
                "qf": [
                    70.28433546052877,
                    70.2843354605157,
                    70.28433546051967
                ],
                "qt": [
                    -69.20541241153155,
                    -69.20541241152202,
                    -69.20541241152632
                ],
                "pt": [
                    -140.87486448696998,
                    -140.8748644868757,
                    -140.8748644868383
                ],
                "pf": [
                    142.24615307896426,
                    142.24615307887544,
                    142.24615307883425
                ]
            },
            "l5_5_6": {
                "qf": [
                    534.7771680554199,
                    534.7771680553418,
                    534.7771680553564
                ],
                "qt": [
                    -516.3313885635403,
                    -516.3313885634581,
                    -516.3313885634764
                ],
                "pt": [
                    -703.4294180561651,
                    -703.4294180561672,
                    -703.4294180561034
                ],
                "pf": [
                    724.7972974451592,
                    724.7972974451607,
                    724.7972974450969
                ]
            },
            "l23_23_24": {
                "qf": [
                    136.04222039390964,
                    136.04222039390973,
                    136.04222039390987
                ],
                "qt": [
                    -133.87257525915248,
                    -133.87257525915481,
                    -133.87257525915484
                ],
                "pt": [
                    -280.6891409747183,
                    -280.68914097472395,
                    -280.6891409747184
                ],
                "pf": [
                    283.43676394136116,
                    283.43676394136696,
                    283.43676394135593
                ]
            },
            "l25_6_26": {
                "qf": [
                    330.26310746597017,
                    330.2631074659184,
                    330.2631074659371
                ],
                "qt": [
                    -329.50386895326466,
                    -329.50386895324493,
                    -329.50386895325374
                ],
                "pt": [
                    -322.87808005268465,
                    -322.8780800527416,
                    -322.8780800527541
                ],
                "pf": [
                    324.36865022914014,
                    324.3686502292701,
                    324.36865022923536
                ]
            },
            "l19_19_20": {
                "qf": [
                    40.481393183362464,
                    40.481393183357575,
                    40.481393183360616
                ],
                "qt": [
                    -40.09129614843021,
                    -40.09129614842706,
                    -40.09129614842712
                ],
                "pt": [
                    -90.07514675681207,
                    -90.07514675680962,
                    -90.07514675681514
                ],
                "pf": [
                    90.50806779573024,
                    90.5080677957274,
                    90.50806779573314
                ]
            }
        },
        "settings": {
            "sbase": 100000.0
        },
        "load": {
            "load24": {
                "qd_bus": [
                    66.66666666666667,
                    66.66666666666667,
                    66.66666666666667
                ],
                "pd_bus": [
                    140.00000000000003,
                    140.00000000000003,
                    140.00000000000003
                ],
                "qd": [
                    66.66666666666667,
                    66.66666666666667,
                    66.66666666666667
                ],
                "pd": [
                    140.00000000000003,
                    140.00000000000003,
                    140.00000000000003
                ]
            },
            "load26": {
                "qd_bus": [
                    8.333333333333334,
                    8.333333333333334,
                    8.333333333333334
                ],
                "pd_bus": [
                    20.0,
                    20.0,
                    20.0
                ],
                "qd": [
                    8.333333333333334,
                    8.333333333333334,
                    8.333333333333334
                ],
                "pd": [
                    20.0,
                    20.0,
                    20.0
                ]
            },
            "load2": {
                "qd_bus": [
                    13.333333333333334,
                    13.333333333333334,
                    13.333333333333334
                ],
                "pd_bus": [
                    30.000000000000004,
                    30.000000000000004,
                    30.000000000000004
                ],
                "qd": [
                    13.333333333333334,
                    13.333333333333334,
                    13.333333333333334
                ],
                "pd": [
                    30.000000000000004,
                    30.000000000000004,
                    30.000000000000004
                ]
            },
            "load11": {
                "qd_bus": [
                    11.666666666666666,
                    11.666666666666666,
                    11.666666666666666
                ],
                "pd_bus": [
                    20.0,
                    20.0,
                    20.0
                ],
                "qd": [
                    11.666666666666666,
                    11.666666666666666,
                    11.666666666666666
                ],
                "pd": [
                    20.0,
                    20.0,
                    20.0
                ]
            },
            "load3": {
                "qd_bus": [
                    26.666666666666668,
                    26.666666666666668,
                    26.666666666666668
                ],
                "pd_bus": [
                    40.0,
                    40.0,
                    40.0
                ],
                "qd": [
                    26.666666666666668,
                    26.666666666666668,
                    26.666666666666668
                ],
                "pd": [
                    40.0,
                    40.0,
                    40.0
                ]
            },
            "load31": {
                "qd_bus": [
                    33.333333333333336,
                    33.333333333333336,
                    33.333333333333336
                ],
                "pd_bus": [
                    70.00000000000001,
                    70.00000000000001,
                    70.00000000000001
                ],
                "qd": [
                    33.333333333333336,
                    33.333333333333336,
                    33.333333333333336
                ],
                "pd": [
                    70.00000000000001,
                    70.00000000000001,
                    70.00000000000001
                ]
            },
            "load8": {
                "qd_bus": [
                    6.666666666666667,
                    6.666666666666667,
                    6.666666666666667
                ],
                "pd_bus": [
                    20.0,
                    20.0,
                    20.0
                ],
                "qd": [
                    6.666666666666667,
                    6.666666666666667,
                    6.666666666666667
                ],
                "pd": [
                    20.0,
                    20.0,
                    20.0
                ]
            },
            "load22": {
                "qd_bus": [
                    16.666666666666668,
                    16.666666666666668,
                    16.666666666666668
                ],
                "pd_bus": [
                    30.000000000000004,
                    30.000000000000004,
                    30.000000000000004
                ],
                "qd": [
                    16.666666666666668,
                    16.666666666666668,
                    16.666666666666668
                ],
                "pd": [
                    30.000000000000004,
                    30.000000000000004,
                    30.000000000000004
                ]
            },
            "load21": {
                "qd_bus": [
                    13.333333333333334,
                    13.333333333333334,
                    13.333333333333334
                ],
                "pd_bus": [
                    30.000000000000004,
                    30.000000000000004,
                    30.000000000000004
                ],
                "qd": [
                    13.333333333333334,
                    13.333333333333334,
                    13.333333333333334
                ],
                "pd": [
                    30.000000000000004,
                    30.000000000000004,
                    30.000000000000004
                ]
            },
            "load29": {
                "qd_bus": [
                    200.0,
                    200.0,
                    200.0
                ],
                "pd_bus": [
                    66.66666666666667,
                    66.66666666666667,
                    66.66666666666667
                ],
                "qd": [
                    200.0,
                    200.0,
                    200.0
                ],
                "pd": [
                    66.66666666666667,
                    66.66666666666667,
                    66.66666666666667
                ]
            },
            "load12": {
                "qd_bus": [
                    11.666666666666666,
                    11.666666666666666,
                    11.666666666666666
                ],
                "pd_bus": [
                    20.0,
                    20.0,
                    20.0
                ],
                "qd": [
                    11.666666666666666,
                    11.666666666666666,
                    11.666666666666666
                ],
                "pd": [
                    20.0,
                    20.0,
                    20.0
                ]
            },
            "load13": {
                "qd_bus": [
                    26.666666666666668,
                    26.666666666666668,
                    26.666666666666668
                ],
                "pd_bus": [
                    40.0,
                    40.0,
                    40.0
                ],
                "qd": [
                    26.666666666666668,
                    26.666666666666668,
                    26.666666666666668
                ],
                "pd": [
                    40.0,
                    40.0,
                    40.0
                ]
            },
            "load10": {
                "qd_bus": [
                    10.0,
                    10.0,
                    10.0
                ],
                "pd_bus": [
                    15.000000000000002,
                    15.000000000000002,
                    15.000000000000002
                ],
                "qd": [
                    10.0,
                    10.0,
                    10.0
                ],
                "pd": [
                    15.000000000000002,
                    15.000000000000002,
                    15.000000000000002
                ]
            },
            "load28": {
                "qd_bus": [
                    23.333333333333332,
                    23.333333333333332,
                    23.333333333333332
                ],
                "pd_bus": [
                    40.0,
                    40.0,
                    40.0
                ],
                "qd": [
                    23.333333333333332,
                    23.333333333333332,
                    23.333333333333332
                ],
                "pd": [
                    40.0,
                    40.0,
                    40.0
                ]
            },
            "load7": {
                "qd_bus": [
                    33.333333333333336,
                    33.333333333333336,
                    33.333333333333336
                ],
                "pd_bus": [
                    66.66666666666667,
                    66.66666666666667,
                    66.66666666666667
                ],
                "qd": [
                    33.333333333333336,
                    33.333333333333336,
                    33.333333333333336
                ],
                "pd": [
                    66.66666666666667,
                    66.66666666666667,
                    66.66666666666667
                ]
            },
            "load15": {
                "qd_bus": [
                    6.666666666666667,
                    6.666666666666667,
                    6.666666666666667
                ],
                "pd_bus": [
                    20.0,
                    20.0,
                    20.0
                ],
                "qd": [
                    6.666666666666667,
                    6.666666666666667,
                    6.666666666666667
                ],
                "pd": [
                    20.0,
                    20.0,
                    20.0
                ]
            },
            "load27": {
                "qd_bus": [
                    6.666666666666667,
                    6.666666666666667,
                    6.666666666666667
                ],
                "pd_bus": [
                    20.0,
                    20.0,
                    20.0
                ],
                "qd": [
                    6.666666666666667,
                    6.666666666666667,
                    6.666666666666667
                ],
                "pd": [
                    20.0,
                    20.0,
                    20.0
                ]
            },
            "load18": {
                "qd_bus": [
                    13.333333333333334,
                    13.333333333333334,
                    13.333333333333334
                ],
                "pd_bus": [
                    30.000000000000004,
                    30.000000000000004,
                    30.000000000000004
                ],
                "qd": [
                    13.333333333333334,
                    13.333333333333334,
                    13.333333333333334
                ],
                "pd": [
                    30.000000000000004,
                    30.000000000000004,
                    30.000000000000004
                ]
            },
            "load20": {
                "qd_bus": [
                    13.333333333333334,
                    13.333333333333334,
                    13.333333333333334
                ],
                "pd_bus": [
                    30.000000000000004,
                    30.000000000000004,
                    30.000000000000004
                ],
                "qd": [
                    13.333333333333334,
                    13.333333333333334,
                    13.333333333333334
                ],
                "pd": [
                    30.000000000000004,
                    30.000000000000004,
                    30.000000000000004
                ]
            },
            "load14": {
                "qd_bus": [
                    3.3333333333333335,
                    3.3333333333333335,
                    3.3333333333333335
                ],
                "pd_bus": [
                    20.0,
                    20.0,
                    20.0
                ],
                "qd": [
                    3.3333333333333335,
                    3.3333333333333335,
                    3.3333333333333335
                ],
                "pd": [
                    20.0,
                    20.0,
                    20.0
                ]
            },
            "load4": {
                "qd_bus": [
                    10.0,
                    10.0,
                    10.0
                ],
                "pd_bus": [
                    20.0,
                    20.0,
                    20.0
                ],
                "qd": [
                    10.0,
                    10.0,
                    10.0
                ],
                "pd": [
                    20.0,
                    20.0,
                    20.0
                ]
            },
            "load1": {
                "qd_bus": [
                    20.0,
                    20.0,
                    20.0
                ],
                "pd_bus": [
                    33.333333333333336,
                    33.333333333333336,
                    33.333333333333336
                ],
                "qd": [
                    20.0,
                    20.0,
                    20.0
                ],
                "pd": [
                    33.333333333333336,
                    33.333333333333336,
                    33.333333333333336
                ]
            },
            "load5": {
                "qd_bus": [
                    6.666666666666667,
                    6.666666666666667,
                    6.666666666666667
                ],
                "pd_bus": [
                    20.0,
                    20.0,
                    20.0
                ],
                "qd": [
                    6.666666666666667,
                    6.666666666666667,
                    6.666666666666667
                ],
                "pd": [
                    20.0,
                    20.0,
                    20.0
                ]
            },
            "load23": {
                "qd_bus": [
                    66.66666666666667,
                    66.66666666666667,
                    66.66666666666667
                ],
                "pd_bus": [
                    140.00000000000003,
                    140.00000000000003,
                    140.00000000000003
                ],
                "qd": [
                    66.66666666666667,
                    66.66666666666667,
                    66.66666666666667
                ],
                "pd": [
                    140.00000000000003,
                    140.00000000000003,
                    140.00000000000003
                ]
            },
            "load19": {
                "qd_bus": [
                    13.333333333333334,
                    13.333333333333334,
                    13.333333333333334
                ],
                "pd_bus": [
                    30.000000000000004,
                    30.000000000000004,
                    30.000000000000004
                ],
                "qd": [
                    13.333333333333334,
                    13.333333333333334,
                    13.333333333333334
                ],
                "pd": [
                    30.000000000000004,
                    30.000000000000004,
                    30.000000000000004
                ]
            },
            "load17": {
                "qd_bus": [
                    13.333333333333334,
                    13.333333333333334,
                    13.333333333333334
                ],
                "pd_bus": [
                    30.000000000000004,
                    30.000000000000004,
                    30.000000000000004
                ],
                "qd": [
                    13.333333333333334,
                    13.333333333333334,
                    13.333333333333334
                ],
                "pd": [
                    30.000000000000004,
                    30.000000000000004,
                    30.000000000000004
                ]
            },
            "load16": {
                "qd_bus": [
                    6.666666666666667,
                    6.666666666666667,
                    6.666666666666667
                ],
                "pd_bus": [
                    20.0,
                    20.0,
                    20.0
                ],
                "qd": [
                    6.666666666666667,
                    6.666666666666667,
                    6.666666666666667
                ],
                "pd": [
                    20.0,
                    20.0,
                    20.0
                ]
            },
            "load9": {
                "qd_bus": [
                    6.666666666666667,
                    6.666666666666667,
                    6.666666666666667
                ],
                "pd_bus": [
                    20.0,
                    20.0,
                    20.0
                ],
                "qd": [
                    6.666666666666667,
                    6.666666666666667,
                    6.666666666666667
                ],
                "pd": [
                    20.0,
                    20.0,
                    20.0
                ]
            },
            "load6": {
                "qd_bus": [
                    33.333333333333336,
                    33.333333333333336,
                    33.333333333333336
                ],
                "pd_bus": [
                    66.66666666666667,
                    66.66666666666667,
                    66.66666666666667
                ],
                "qd": [
                    33.333333333333336,
                    33.333333333333336,
                    33.333333333333336
                ],
                "pd": [
                    66.66666666666667,
                    66.66666666666667,
                    66.66666666666667
                ]
            },
            "load25": {
                "qd_bus": [
                    8.333333333333334,
                    8.333333333333334,
                    8.333333333333334
                ],
                "pd_bus": [
                    20.0,
                    20.0,
                    20.0
                ],
                "qd": [
                    8.333333333333334,
                    8.333333333333334,
                    8.333333333333334
                ],
                "pd": [
                    20.0,
                    20.0,
                    20.0
                ]
            },
            "load30": {
                "qd_bus": [
                    23.333333333333332,
                    23.333333333333332,
                    23.333333333333332
                ],
                "pd_bus": [
                    50.0,
                    50.0,
                    50.0
                ],
                "qd": [
                    23.333333333333332,
                    23.333333333333332,
                    23.333333333333332
                ],
                "pd": [
                    50.0,
                    50.0,
                    50.0
                ]
            },
            "load32": {
                "qd_bus": [
                    13.333333333333334,
                    13.333333333333334,
                    13.333333333333334
                ],
                "pd_bus": [
                    20.0,
                    20.0,
                    20.0
                ],
                "qd": [
                    13.333333333333334,
                    13.333333333333334,
                    13.333333333333334
                ],
                "pd": [
                    20.0,
                    20.0,
                    20.0
                ]
            }
        },
        "bus": {
            "bus14": {
                "va": [
                    -10.472594433787409,
                    -130.47259443378692,
                    109.52740556621366
                ],
                "vm": [
                    5.1146604928735,
                    5.1146604928737815,
                    5.114660492873924
                ]
            },
            "bus7": {
                "va": [
                    -10.125739446308849,
                    -130.125739446309,
                    109.87426055369123
                ],
                "vm": [
                    5.369322993516964,
                    5.369322993517112,
                    5.3693229935172155
                ]
            },
            "bus27": {
                "va": [
                    -9.592957018210528,
                    -129.59295701821094,
                    110.40704298178927
                ],
                "vm": [
                    5.3590812720636345,
                    5.3590812720637695,
                    5.3590812720638725
                ]
            },
            "bus30": {
                "va": [
                    -9.141597076618236,
                    -129.14159707661895,
                    110.85840292338129
                ],
                "vm": [
                    5.136105288239928,
                    5.136105288240056,
                    5.136105288240165
                ]
            },
            "bus15": {
                "va": [
                    -10.526138754016404,
                    -130.5261387540158,
                    109.47386124598484
                ],
                "vm": [
                    5.102235021844169,
                    5.102235021844467,
                    5.102235021844613
                ]
            },
            "bus33": {
                "va": [
                    -9.340734512602596,
                    -129.34073451260352,
                    110.65926548739677
                ],
                "vm": [
                    5.084489890807352,
                    5.084489890807476,
                    5.084489890807585
                ]
            },
            "bus5": {
                "va": [
                    -9.611592805930327,
                    -129.61159280593054,
                    110.38840719406954
                ],
                "vm": [
                    5.5764355361303375,
                    5.576435536130464,
                    5.576435536130555
                ]
            },
            "bus12": {
                "va": [
                    -10.221245760969888,
                    -130.22124576096977,
                    109.77875423903063
                ],
                "vm": [
                    5.191233955392125,
                    5.19123395539236,
                    5.191233955392488
                ]
            },
            "bus10": {
                "va": [
                    -10.257561392611825,
                    -130.2575613926117,
                    109.74243860738866
                ],
                "vm": [
                    5.212752826987984,
                    5.2127528269882095,
                    5.212752826988332
                ]
            },
            "bus2": {
                "va": [
                    -9.97571050555538,
                    -129.97571050555538,
                    110.02428949444462
                ],
                "vm": [
                    5.849145118053558,
                    5.849145118053668,
                    5.849145118053741
                ]
            },
            "bus6": {
                "va": [
                    -9.753190303670785,
                    -129.75319030367112,
                    110.2468096963291
                ],
                "vm": [
                    5.402201575255365,
                    5.402201575255505,
                    5.402201575255607
                ]
            },
            "bus1": {
                "va": [
                    -10.00000056963715,
                    -130.00000056963714,
                    109.99999943036286
                ],
                "vm": [
                    5.876904695751217,
                    5.8769046957513265,
                    5.8769046957513975
                ]
            },
            "bus17": {
                "va": [
                    -10.650311687366106,
                    -130.6503116873642,
                    109.34968831263654
                ],
                "vm": [
                    5.073548647487574,
                    5.073548647487972,
                    5.073548647488129
                ]
            },
            "bus11": {
                "va": [
                    -10.243715504606438,
                    -130.2437155046063,
                    109.75628449539406
                ],
                "vm": [
                    5.2048901626446735,
                    5.2048901626449044,
                    5.204890162645028
                ]
            },
            "bus29": {
                "va": [
                    -9.322557865692394,
                    -129.32255786569306,
                    110.6774421343072
                ],
                "vm": [
                    5.170298603504114,
                    5.1702986035042455,
                    5.170298603504353
                ]
            },
            "bus20": {
                "va": [
                    -10.096749120999124,
                    -130.09674912099914,
                    109.90325087900086
                ],
                "vm": [
                    5.811648669425439,
                    5.81164866942555,
                    5.8116486694256215
                ]
            },
            "bus19": {
                "va": [
                    -9.992528172124219,
                    -129.99252817212425,
                    110.00747182787578
                ],
                "vm": [
                    5.844322180648483,
                    5.844322180648593,
                    5.844322180648666
                ]
            },
            "bus9": {
                "va": [
                    -10.167188418183656,
                    -130.16718841818368,
                    109.83281158181664
                ],
                "vm": [
                    5.26644851508732,
                    5.266448515087516,
                    5.2664485150876335
                ]
            },
            "bus26": {
                "va": [
                    -9.687187228225842,
                    -129.6871872282262,
                    110.312812771774
                ],
                "vm": [
                    5.383694908527724,
                    5.383694908527862,
                    5.383694908527964
                ]
            },
            "bus31": {
                "va": [
                    -9.28735838605265,
                    -129.2873583860535,
                    110.71264161394676
                ],
                "vm": [
                    5.096037276109008,
                    5.096037276109133,
                    5.096037276109241
                ]
            },
            "bus22": {
                "va": [
                    -10.15871709029852,
                    -130.15871709029852,
                    109.84128290970146
                ],
                "vm": [
                    5.799390877576973,
                    5.799390877577085,
                    5.799390877577155
                ]
            },
            "bus8": {
                "va": [
                    -10.059635428263638,
                    -130.0596354282638,
                    109.94036457173648
                ],
                "vm": [
                    5.324477026121947,
                    5.324477026122114,
                    5.324477026122224
                ]
            },
            "bus21": {
                "va": [
                    -10.126948603148389,
                    -130.1269486031484,
                    109.8730513968516
                ],
                "vm": [
                    5.8052138178620245,
                    5.805213817862136,
                    5.805213817862208
                ]
            },
            "bus16": {
                "va": [
                    -10.554387512895275,
                    -130.5543875128945,
                    109.44561248710619
                ],
                "vm": [
                    5.090535877419957,
                    5.090535877420279,
                    5.09053587742043
                ]
            },
            "bus18": {
                "va": [
                    -10.654268851714459,
                    -130.6542688517032,
                    109.34573114829759
                ],
                "vm": [
                    5.069136625069104,
                    5.069136625070561,
                    5.069136625070721
                ]
            },
            "bus3": {
                "va": [
                    -9.837904593573006,
                    -129.8379045935731,
                    110.16209540642694
                ],
                "vm": [
                    5.716908395547536,
                    5.7169083955476525,
                    5.716908395547734
                ]
            },
            "bus24": {
                "va": [
                    -10.028129828422692,
                    -130.0281298284228,
                    109.97187017157728
                ],
                "vm": [
                    5.622004143290833,
                    5.622004143290951,
                    5.622004143291036
                ]
            },
            "bus32": {
                "va": [
                    -9.327316898015956,
                    -129.32731689801685,
                    110.67268310198342
                ],
                "vm": [
                    5.087221735309043,
                    5.087221735309167,
                    5.087221735309276
                ]
            },
            "bus4": {
                "va": [
                    -9.726324311649977,
                    -129.72632431165013,
                    110.27367568834994
                ],
                "vm": [
                    5.646309315005089,
                    5.646309315005212,
                    5.646309315005299
                ]
            },
            "bus28": {
                "va": [
                    -9.454610811598974,
                    -129.45461081159954,
                    110.54538918840069
                ],
                "vm": [
                    5.2492397046914805,
                    5.249239704691613,
                    5.249239704691718
                ]
            },
            "bus13": {
                "va": [
                    -10.352599004061547,
                    -130.3525990040612,
                    109.64740099593928
                ],
                "vm": [
                    5.135384861439129,
                    5.135384861439397,
                    5.135384861439536
                ]
            },
            "bus25": {
                "va": [
                    -10.098160940761222,
                    -130.09816094076135,
                    109.90183905923875
                ],
                "vm": [
                    5.59120515224595,
                    5.591205152246068,
                    5.591205152246154
                ]
            },
            "bus23": {
                "va": [
                    -9.886801546360118,
                    -129.88680154636023,
                    110.11319845363984
                ],
                "vm": [
                    5.68374104188984,
                    5.683741041889957,
                    5.68374104189004
                ]
            }
        },
        "per_unit": false
    },
    "objective_lb": null
}
